[board]
type=System
children=cache_hierarchy clk_domain dvfs_handler iobus memory pc processor workload
auto_unlink_shared_backstore=false
cache_line_size=64
eventq_index=0
exit_on_work_items=true
external_memory_ranges=
init_param=0
m5ops_base=4294901760
mem_mode=timing
mem_ranges=0:3221225472 3221225472:3222274048
memories=board.memory.mem_ctrl0.dram board.memory.mem_ctrl1.dram
mmap_using_noreserve=false
multi_thread=false
num_work_ids=16
readfile=
redirect_paths=
shadow_rom_ranges=
shared_backstore=
symbolfile=
thermal_components=
thermal_model=Null
work_begin_ckpt_count=0
work_begin_cpu_id_exit=-1
work_begin_exit_count=0
work_cpus_ckpt_count=0
work_end_ckpt_count=0
work_end_exit_count=0
work_item_id=-1
workload=board.workload
system_port=board.cache_hierarchy.ruby_system.sys_port_proxy.in_ports[0]

[board.cache_hierarchy]
type=SubSystem
children=ruby_system
eventq_index=0
thermal_domain=Null

[board.cache_hierarchy.ruby_system]
type=RubySystem
children=directory_controllers0 directory_controllers1 dma_controllers0 dma_controllers1 l1_controllers0 l1_controllers1 l1_controllers2 l1_controllers3 l2_controllers0 l2_controllers1 l2_controllers2 l2_controllers3 l3_controllers network power_state sys_port_proxy
access_backing_store=false
all_instructions=false
block_size_bytes=64
clk_domain=board.clk_domain
eventq_index=0
hot_lines=false
memory_size_bits=64
num_of_sequencers=6
number_of_virtual_networks=3
phys_mem=Null
power_model=
power_state=board.cache_hierarchy.ruby_system.power_state
randomization=false
system=board

[board.cache_hierarchy.ruby_system.directory_controllers0]
type=MESI_Three_Level_Directory_Controller
children=directory power_state requestToDir requestToMemory responseFromDir responseFromMemory responseToDir
addr_ranges=0:3221225472:0:64
buffer_size=0
clk_domain=board.clk_domain
cluster_id=0
directory=board.cache_hierarchy.ruby_system.directory_controllers0.directory
directory_latency=6
downstream_destinations=
eventq_index=6
mandatory_queue_latency=1
number_of_TBEs=256
power_model=
power_state=board.cache_hierarchy.ruby_system.directory_controllers0.power_state
recycle_latency=10
requestToDir=board.cache_hierarchy.ruby_system.directory_controllers0.requestToDir
requestToMemory=board.cache_hierarchy.ruby_system.directory_controllers0.requestToMemory
responseFromDir=board.cache_hierarchy.ruby_system.directory_controllers0.responseFromDir
responseFromMemory=board.cache_hierarchy.ruby_system.directory_controllers0.responseFromMemory
responseToDir=board.cache_hierarchy.ruby_system.directory_controllers0.responseToDir
ruby_system=board.cache_hierarchy.ruby_system
system=board
to_mem_ctrl_latency=1
transitions_per_cycle=32
upstream_destinations=
version=0
memory_out_port=board.memory.mem_ctrl0.port

[board.cache_hierarchy.ruby_system.directory_controllers0.directory]
type=RubyDirectoryMemory
addr_ranges=0:3221225472:0:64
block_size=64
eventq_index=6
ruby_system=board.cache_hierarchy.ruby_system

[board.cache_hierarchy.ruby_system.directory_controllers0.power_state]
type=PowerState
clk_gate_bins=20
clk_gate_max=1000000000000
clk_gate_min=1000
default_state=UNDEFINED
eventq_index=6
leaders=
possible_states=

[board.cache_hierarchy.ruby_system.directory_controllers0.requestToDir]
type=MessageBuffer
allow_zero_latency=false
buffer_size=0
eventq_index=6
max_dequeue_rate=0
ordered=false
randomization=ruby_system
routing_priority=0
in_port=board.cache_hierarchy.ruby_system.network.out_port[11]

[board.cache_hierarchy.ruby_system.directory_controllers0.requestToMemory]
type=MessageBuffer
allow_zero_latency=false
buffer_size=0
eventq_index=6
max_dequeue_rate=0
ordered=false
randomization=ruby_system
routing_priority=0

[board.cache_hierarchy.ruby_system.directory_controllers0.responseFromDir]
type=MessageBuffer
allow_zero_latency=false
buffer_size=0
eventq_index=6
max_dequeue_rate=0
ordered=false
randomization=ruby_system
routing_priority=0
out_port=board.cache_hierarchy.ruby_system.network.in_port[15]

[board.cache_hierarchy.ruby_system.directory_controllers0.responseFromMemory]
type=MessageBuffer
allow_zero_latency=false
buffer_size=0
eventq_index=6
max_dequeue_rate=0
ordered=false
randomization=ruby_system
routing_priority=0

[board.cache_hierarchy.ruby_system.directory_controllers0.responseToDir]
type=MessageBuffer
allow_zero_latency=false
buffer_size=0
eventq_index=6
max_dequeue_rate=0
ordered=false
randomization=ruby_system
routing_priority=0
in_port=board.cache_hierarchy.ruby_system.network.out_port[12]

[board.cache_hierarchy.ruby_system.directory_controllers1]
type=MESI_Three_Level_Directory_Controller
children=directory power_state requestToDir requestToMemory responseFromDir responseFromMemory responseToDir
addr_ranges=0:3221225472:1:64
buffer_size=0
clk_domain=board.clk_domain
cluster_id=0
directory=board.cache_hierarchy.ruby_system.directory_controllers1.directory
directory_latency=6
downstream_destinations=
eventq_index=7
mandatory_queue_latency=1
number_of_TBEs=256
power_model=
power_state=board.cache_hierarchy.ruby_system.directory_controllers1.power_state
recycle_latency=10
requestToDir=board.cache_hierarchy.ruby_system.directory_controllers1.requestToDir
requestToMemory=board.cache_hierarchy.ruby_system.directory_controllers1.requestToMemory
responseFromDir=board.cache_hierarchy.ruby_system.directory_controllers1.responseFromDir
responseFromMemory=board.cache_hierarchy.ruby_system.directory_controllers1.responseFromMemory
responseToDir=board.cache_hierarchy.ruby_system.directory_controllers1.responseToDir
ruby_system=board.cache_hierarchy.ruby_system
system=board
to_mem_ctrl_latency=1
transitions_per_cycle=32
upstream_destinations=
version=1
memory_out_port=board.memory.mem_ctrl1.port

[board.cache_hierarchy.ruby_system.directory_controllers1.directory]
type=RubyDirectoryMemory
addr_ranges=0:3221225472:1:64
block_size=64
eventq_index=7
ruby_system=board.cache_hierarchy.ruby_system

[board.cache_hierarchy.ruby_system.directory_controllers1.power_state]
type=PowerState
clk_gate_bins=20
clk_gate_max=1000000000000
clk_gate_min=1000
default_state=UNDEFINED
eventq_index=7
leaders=
possible_states=

[board.cache_hierarchy.ruby_system.directory_controllers1.requestToDir]
type=MessageBuffer
allow_zero_latency=false
buffer_size=0
eventq_index=7
max_dequeue_rate=0
ordered=false
randomization=ruby_system
routing_priority=0
in_port=board.cache_hierarchy.ruby_system.network.out_port[13]

[board.cache_hierarchy.ruby_system.directory_controllers1.requestToMemory]
type=MessageBuffer
allow_zero_latency=false
buffer_size=0
eventq_index=7
max_dequeue_rate=0
ordered=false
randomization=ruby_system
routing_priority=0

[board.cache_hierarchy.ruby_system.directory_controllers1.responseFromDir]
type=MessageBuffer
allow_zero_latency=false
buffer_size=0
eventq_index=7
max_dequeue_rate=0
ordered=false
randomization=ruby_system
routing_priority=0
out_port=board.cache_hierarchy.ruby_system.network.in_port[16]

[board.cache_hierarchy.ruby_system.directory_controllers1.responseFromMemory]
type=MessageBuffer
allow_zero_latency=false
buffer_size=0
eventq_index=7
max_dequeue_rate=0
ordered=false
randomization=ruby_system
routing_priority=0

[board.cache_hierarchy.ruby_system.directory_controllers1.responseToDir]
type=MessageBuffer
allow_zero_latency=false
buffer_size=0
eventq_index=7
max_dequeue_rate=0
ordered=false
randomization=ruby_system
routing_priority=0
in_port=board.cache_hierarchy.ruby_system.network.out_port[14]

[board.cache_hierarchy.ruby_system.dma_controllers0]
type=MESI_Three_Level_DMA_Controller
children=dma_sequencer mandatoryQueue power_state requestToDir responseFromDir
addr_ranges=0:18446744073709551615
buffer_size=0
clk_domain=board.clk_domain
cluster_id=0
dma_sequencer=board.cache_hierarchy.ruby_system.dma_controllers0.dma_sequencer
downstream_destinations=
eventq_index=0
mandatoryQueue=board.cache_hierarchy.ruby_system.dma_controllers0.mandatoryQueue
mandatory_queue_latency=1
number_of_TBEs=256
power_model=
power_state=board.cache_hierarchy.ruby_system.dma_controllers0.power_state
recycle_latency=10
requestToDir=board.cache_hierarchy.ruby_system.dma_controllers0.requestToDir
request_latency=6
responseFromDir=board.cache_hierarchy.ruby_system.dma_controllers0.responseFromDir
ruby_system=board.cache_hierarchy.ruby_system
system=board
transitions_per_cycle=32
upstream_destinations=
version=0

[board.cache_hierarchy.ruby_system.dma_controllers0.dma_sequencer]
type=DMASequencer
children=power_state
clk_domain=board.clk_domain
eventq_index=0
is_cpu_sequencer=true
max_outstanding_requests=64
no_retry_on_stall=false
power_model=
power_state=board.cache_hierarchy.ruby_system.dma_controllers0.dma_sequencer.power_state
ruby_system=board.cache_hierarchy.ruby_system
support_data_reqs=true
support_inst_reqs=true
system=board
using_ruby_tester=false
version=0
in_ports=board.pc.pci_host.down_to_up.mem_side_port

[board.cache_hierarchy.ruby_system.dma_controllers0.dma_sequencer.power_state]
type=PowerState
clk_gate_bins=20
clk_gate_max=1000000000000
clk_gate_min=1000
default_state=UNDEFINED
eventq_index=0
leaders=
possible_states=

[board.cache_hierarchy.ruby_system.dma_controllers0.mandatoryQueue]
type=MessageBuffer
allow_zero_latency=false
buffer_size=0
eventq_index=0
max_dequeue_rate=0
ordered=false
randomization=ruby_system
routing_priority=0

[board.cache_hierarchy.ruby_system.dma_controllers0.power_state]
type=PowerState
clk_gate_bins=20
clk_gate_max=1000000000000
clk_gate_min=1000
default_state=UNDEFINED
eventq_index=0
leaders=
possible_states=

[board.cache_hierarchy.ruby_system.dma_controllers0.requestToDir]
type=MessageBuffer
allow_zero_latency=false
buffer_size=0
eventq_index=0
max_dequeue_rate=0
ordered=false
randomization=ruby_system
routing_priority=0
out_port=board.cache_hierarchy.ruby_system.network.in_port[17]

[board.cache_hierarchy.ruby_system.dma_controllers0.responseFromDir]
type=MessageBuffer
allow_zero_latency=false
buffer_size=0
eventq_index=0
max_dequeue_rate=0
ordered=true
randomization=ruby_system
routing_priority=0
in_port=board.cache_hierarchy.ruby_system.network.out_port[15]

[board.cache_hierarchy.ruby_system.dma_controllers1]
type=MESI_Three_Level_DMA_Controller
children=dma_sequencer mandatoryQueue power_state requestToDir responseFromDir
addr_ranges=0:18446744073709551615
buffer_size=0
clk_domain=board.clk_domain
cluster_id=0
dma_sequencer=board.cache_hierarchy.ruby_system.dma_controllers1.dma_sequencer
downstream_destinations=
eventq_index=0
mandatoryQueue=board.cache_hierarchy.ruby_system.dma_controllers1.mandatoryQueue
mandatory_queue_latency=1
number_of_TBEs=256
power_model=
power_state=board.cache_hierarchy.ruby_system.dma_controllers1.power_state
recycle_latency=10
requestToDir=board.cache_hierarchy.ruby_system.dma_controllers1.requestToDir
request_latency=6
responseFromDir=board.cache_hierarchy.ruby_system.dma_controllers1.responseFromDir
ruby_system=board.cache_hierarchy.ruby_system
system=board
transitions_per_cycle=32
upstream_destinations=
version=1

[board.cache_hierarchy.ruby_system.dma_controllers1.dma_sequencer]
type=DMASequencer
children=power_state
clk_domain=board.clk_domain
eventq_index=0
is_cpu_sequencer=true
max_outstanding_requests=64
no_retry_on_stall=false
power_model=
power_state=board.cache_hierarchy.ruby_system.dma_controllers1.dma_sequencer.power_state
ruby_system=board.cache_hierarchy.ruby_system
support_data_reqs=true
support_inst_reqs=true
system=board
using_ruby_tester=false
version=1
in_ports=board.iobus.mem_side_ports[18]

[board.cache_hierarchy.ruby_system.dma_controllers1.dma_sequencer.power_state]
type=PowerState
clk_gate_bins=20
clk_gate_max=1000000000000
clk_gate_min=1000
default_state=UNDEFINED
eventq_index=0
leaders=
possible_states=

[board.cache_hierarchy.ruby_system.dma_controllers1.mandatoryQueue]
type=MessageBuffer
allow_zero_latency=false
buffer_size=0
eventq_index=0
max_dequeue_rate=0
ordered=false
randomization=ruby_system
routing_priority=0

[board.cache_hierarchy.ruby_system.dma_controllers1.power_state]
type=PowerState
clk_gate_bins=20
clk_gate_max=1000000000000
clk_gate_min=1000
default_state=UNDEFINED
eventq_index=0
leaders=
possible_states=

[board.cache_hierarchy.ruby_system.dma_controllers1.requestToDir]
type=MessageBuffer
allow_zero_latency=false
buffer_size=0
eventq_index=0
max_dequeue_rate=0
ordered=false
randomization=ruby_system
routing_priority=0
out_port=board.cache_hierarchy.ruby_system.network.in_port[18]

[board.cache_hierarchy.ruby_system.dma_controllers1.responseFromDir]
type=MessageBuffer
allow_zero_latency=false
buffer_size=0
eventq_index=0
max_dequeue_rate=0
ordered=true
randomization=ruby_system
routing_priority=0
in_port=board.cache_hierarchy.ruby_system.network.out_port[16]

[board.cache_hierarchy.ruby_system.l1_controllers0]
type=MESI_Three_Level_L0Cache_Controller
children=Dcache Icache bufferFromL1 bufferToL1 mandatoryQueue optionalQueue power_state prefetchQueue prefetcher sequencer
Dcache=board.cache_hierarchy.ruby_system.l1_controllers0.Dcache
Icache=board.cache_hierarchy.ruby_system.l1_controllers0.Icache
addr_ranges=0:18446744073709551615
bufferFromL1=board.cache_hierarchy.ruby_system.l1_controllers0.bufferFromL1
bufferToL1=board.cache_hierarchy.ruby_system.l1_controllers0.bufferToL1
buffer_size=0
clk_domain=board.clk_domain
cluster_id=0
downstream_destinations=
enable_prefetch=false
eventq_index=1
llsc_lock_timeout_latency=16
mandatoryQueue=board.cache_hierarchy.ruby_system.l1_controllers0.mandatoryQueue
mandatory_queue_latency=1
number_of_TBEs=256
power_model=
power_state=board.cache_hierarchy.ruby_system.l1_controllers0.power_state
prefetchQueue=board.cache_hierarchy.ruby_system.l1_controllers0.prefetchQueue
prefetcher=board.cache_hierarchy.ruby_system.l1_controllers0.prefetcher
recycle_latency=10
request_latency=2
response_latency=2
ruby_system=board.cache_hierarchy.ruby_system
send_evictions=true
sequencer=board.cache_hierarchy.ruby_system.l1_controllers0.sequencer
system=board
transitions_per_cycle=32
upstream_destinations=
use_llsc_lock=true
version=0

[board.cache_hierarchy.ruby_system.l1_controllers0.Dcache]
type=RubyCache
children=replacement_policy
assoc=8
atomicALUs=64
atomicLatency=0
block_size=0
dataAccessLatency=1
dataArrayBanks=1
eventq_index=1
is_icache=false
replacement_policy=board.cache_hierarchy.ruby_system.l1_controllers0.Dcache.replacement_policy
resourceStalls=false
size=32768
start_index_bit=6
tagAccessLatency=1
tagArrayBanks=1

[board.cache_hierarchy.ruby_system.l1_controllers0.Dcache.replacement_policy]
type=LRURP
eventq_index=1

[board.cache_hierarchy.ruby_system.l1_controllers0.Icache]
type=RubyCache
children=replacement_policy
assoc=8
atomicALUs=64
atomicLatency=0
block_size=0
dataAccessLatency=1
dataArrayBanks=1
eventq_index=1
is_icache=true
replacement_policy=board.cache_hierarchy.ruby_system.l1_controllers0.Icache.replacement_policy
resourceStalls=false
size=32768
start_index_bit=6
tagAccessLatency=1
tagArrayBanks=1

[board.cache_hierarchy.ruby_system.l1_controllers0.Icache.replacement_policy]
type=LRURP
eventq_index=1

[board.cache_hierarchy.ruby_system.l1_controllers0.bufferFromL1]
type=MessageBuffer
allow_zero_latency=false
buffer_size=0
eventq_index=1
max_dequeue_rate=0
ordered=true
randomization=ruby_system
routing_priority=0

[board.cache_hierarchy.ruby_system.l1_controllers0.bufferToL1]
type=MessageBuffer
allow_zero_latency=false
buffer_size=0
eventq_index=1
max_dequeue_rate=0
ordered=true
randomization=ruby_system
routing_priority=0

[board.cache_hierarchy.ruby_system.l1_controllers0.mandatoryQueue]
type=MessageBuffer
allow_zero_latency=false
buffer_size=0
eventq_index=1
max_dequeue_rate=0
ordered=false
randomization=ruby_system
routing_priority=0

[board.cache_hierarchy.ruby_system.l1_controllers0.optionalQueue]
type=MessageBuffer
allow_zero_latency=false
buffer_size=0
eventq_index=1
max_dequeue_rate=0
ordered=false
randomization=ruby_system
routing_priority=0

[board.cache_hierarchy.ruby_system.l1_controllers0.power_state]
type=PowerState
clk_gate_bins=20
clk_gate_max=1000000000000
clk_gate_min=1000
default_state=UNDEFINED
eventq_index=1
leaders=
possible_states=

[board.cache_hierarchy.ruby_system.l1_controllers0.prefetchQueue]
type=MessageBuffer
allow_zero_latency=false
buffer_size=0
eventq_index=1
max_dequeue_rate=0
ordered=false
randomization=ruby_system
routing_priority=0

[board.cache_hierarchy.ruby_system.l1_controllers0.prefetcher]
type=RubyPrefetcher
block_size=64
cross_page=false
eventq_index=1
nonunit_filter=8
num_startup_pfs=1
num_streams=4
page_shift=12
train_misses=4
unit_filter=8

[board.cache_hierarchy.ruby_system.l1_controllers0.sequencer]
type=RubySequencer
children=power_state
clk_domain=board.clk_domain
coreid=99
dcache=board.cache_hierarchy.ruby_system.l1_controllers0.Dcache
deadlock_threshold=500000
eventq_index=1
garnet_standalone=false
is_cpu_sequencer=true
max_outstanding_requests=32
no_retry_on_stall=false
power_model=
power_state=board.cache_hierarchy.ruby_system.l1_controllers0.sequencer.power_state
ruby_system=board.cache_hierarchy.ruby_system
support_data_reqs=true
support_inst_reqs=true
system=board
using_ruby_tester=false
version=0
in_ports=board.processor.cores0.core.icache_port board.processor.cores0.core.dcache_port board.processor.cores0.core.mmu.itb.walker.port board.processor.cores0.core.mmu.dtb.walker.port board.processor.cores0.core.interrupts.int_requestor
interrupt_out_port=board.processor.cores0.core.interrupts.pio board.processor.cores0.core.interrupts.int_responder
mem_request_port=board.iobus.cpu_side_ports[2]
pio_request_port=board.iobus.cpu_side_ports[1]
pio_response_port=board.iobus.mem_side_ports[14]

[board.cache_hierarchy.ruby_system.l1_controllers0.sequencer.power_state]
type=PowerState
clk_gate_bins=20
clk_gate_max=1000000000000
clk_gate_min=1000
default_state=UNDEFINED
eventq_index=1
leaders=
possible_states=

[board.cache_hierarchy.ruby_system.l1_controllers1]
type=MESI_Three_Level_L0Cache_Controller
children=Dcache Icache bufferFromL1 bufferToL1 mandatoryQueue optionalQueue power_state prefetchQueue prefetcher sequencer
Dcache=board.cache_hierarchy.ruby_system.l1_controllers1.Dcache
Icache=board.cache_hierarchy.ruby_system.l1_controllers1.Icache
addr_ranges=0:18446744073709551615
bufferFromL1=board.cache_hierarchy.ruby_system.l1_controllers1.bufferFromL1
bufferToL1=board.cache_hierarchy.ruby_system.l1_controllers1.bufferToL1
buffer_size=0
clk_domain=board.clk_domain
cluster_id=0
downstream_destinations=
enable_prefetch=false
eventq_index=2
llsc_lock_timeout_latency=16
mandatoryQueue=board.cache_hierarchy.ruby_system.l1_controllers1.mandatoryQueue
mandatory_queue_latency=1
number_of_TBEs=256
power_model=
power_state=board.cache_hierarchy.ruby_system.l1_controllers1.power_state
prefetchQueue=board.cache_hierarchy.ruby_system.l1_controllers1.prefetchQueue
prefetcher=board.cache_hierarchy.ruby_system.l1_controllers1.prefetcher
recycle_latency=10
request_latency=2
response_latency=2
ruby_system=board.cache_hierarchy.ruby_system
send_evictions=true
sequencer=board.cache_hierarchy.ruby_system.l1_controllers1.sequencer
system=board
transitions_per_cycle=32
upstream_destinations=
use_llsc_lock=true
version=1

[board.cache_hierarchy.ruby_system.l1_controllers1.Dcache]
type=RubyCache
children=replacement_policy
assoc=8
atomicALUs=64
atomicLatency=0
block_size=0
dataAccessLatency=1
dataArrayBanks=1
eventq_index=2
is_icache=false
replacement_policy=board.cache_hierarchy.ruby_system.l1_controllers1.Dcache.replacement_policy
resourceStalls=false
size=32768
start_index_bit=6
tagAccessLatency=1
tagArrayBanks=1

[board.cache_hierarchy.ruby_system.l1_controllers1.Dcache.replacement_policy]
type=LRURP
eventq_index=2

[board.cache_hierarchy.ruby_system.l1_controllers1.Icache]
type=RubyCache
children=replacement_policy
assoc=8
atomicALUs=64
atomicLatency=0
block_size=0
dataAccessLatency=1
dataArrayBanks=1
eventq_index=2
is_icache=true
replacement_policy=board.cache_hierarchy.ruby_system.l1_controllers1.Icache.replacement_policy
resourceStalls=false
size=32768
start_index_bit=6
tagAccessLatency=1
tagArrayBanks=1

[board.cache_hierarchy.ruby_system.l1_controllers1.Icache.replacement_policy]
type=LRURP
eventq_index=2

[board.cache_hierarchy.ruby_system.l1_controllers1.bufferFromL1]
type=MessageBuffer
allow_zero_latency=false
buffer_size=0
eventq_index=2
max_dequeue_rate=0
ordered=true
randomization=ruby_system
routing_priority=0

[board.cache_hierarchy.ruby_system.l1_controllers1.bufferToL1]
type=MessageBuffer
allow_zero_latency=false
buffer_size=0
eventq_index=2
max_dequeue_rate=0
ordered=true
randomization=ruby_system
routing_priority=0

[board.cache_hierarchy.ruby_system.l1_controllers1.mandatoryQueue]
type=MessageBuffer
allow_zero_latency=false
buffer_size=0
eventq_index=2
max_dequeue_rate=0
ordered=false
randomization=ruby_system
routing_priority=0

[board.cache_hierarchy.ruby_system.l1_controllers1.optionalQueue]
type=MessageBuffer
allow_zero_latency=false
buffer_size=0
eventq_index=2
max_dequeue_rate=0
ordered=false
randomization=ruby_system
routing_priority=0

[board.cache_hierarchy.ruby_system.l1_controllers1.power_state]
type=PowerState
clk_gate_bins=20
clk_gate_max=1000000000000
clk_gate_min=1000
default_state=UNDEFINED
eventq_index=2
leaders=
possible_states=

[board.cache_hierarchy.ruby_system.l1_controllers1.prefetchQueue]
type=MessageBuffer
allow_zero_latency=false
buffer_size=0
eventq_index=2
max_dequeue_rate=0
ordered=false
randomization=ruby_system
routing_priority=0

[board.cache_hierarchy.ruby_system.l1_controllers1.prefetcher]
type=RubyPrefetcher
block_size=64
cross_page=false
eventq_index=2
nonunit_filter=8
num_startup_pfs=1
num_streams=4
page_shift=12
train_misses=4
unit_filter=8

[board.cache_hierarchy.ruby_system.l1_controllers1.sequencer]
type=RubySequencer
children=power_state
clk_domain=board.clk_domain
coreid=99
dcache=board.cache_hierarchy.ruby_system.l1_controllers1.Dcache
deadlock_threshold=500000
eventq_index=2
garnet_standalone=false
is_cpu_sequencer=true
max_outstanding_requests=32
no_retry_on_stall=false
power_model=
power_state=board.cache_hierarchy.ruby_system.l1_controllers1.sequencer.power_state
ruby_system=board.cache_hierarchy.ruby_system
support_data_reqs=true
support_inst_reqs=true
system=board
using_ruby_tester=false
version=1
in_ports=board.processor.cores1.core.icache_port board.processor.cores1.core.dcache_port board.processor.cores1.core.mmu.itb.walker.port board.processor.cores1.core.mmu.dtb.walker.port board.processor.cores1.core.interrupts.int_requestor
interrupt_out_port=board.processor.cores1.core.interrupts.pio board.processor.cores1.core.interrupts.int_responder
mem_request_port=board.iobus.cpu_side_ports[4]
pio_request_port=board.iobus.cpu_side_ports[3]
pio_response_port=board.iobus.mem_side_ports[15]

[board.cache_hierarchy.ruby_system.l1_controllers1.sequencer.power_state]
type=PowerState
clk_gate_bins=20
clk_gate_max=1000000000000
clk_gate_min=1000
default_state=UNDEFINED
eventq_index=2
leaders=
possible_states=

[board.cache_hierarchy.ruby_system.l1_controllers2]
type=MESI_Three_Level_L0Cache_Controller
children=Dcache Icache bufferFromL1 bufferToL1 mandatoryQueue optionalQueue power_state prefetchQueue prefetcher sequencer
Dcache=board.cache_hierarchy.ruby_system.l1_controllers2.Dcache
Icache=board.cache_hierarchy.ruby_system.l1_controllers2.Icache
addr_ranges=0:18446744073709551615
bufferFromL1=board.cache_hierarchy.ruby_system.l1_controllers2.bufferFromL1
bufferToL1=board.cache_hierarchy.ruby_system.l1_controllers2.bufferToL1
buffer_size=0
clk_domain=board.clk_domain
cluster_id=0
downstream_destinations=
enable_prefetch=false
eventq_index=3
llsc_lock_timeout_latency=16
mandatoryQueue=board.cache_hierarchy.ruby_system.l1_controllers2.mandatoryQueue
mandatory_queue_latency=1
number_of_TBEs=256
power_model=
power_state=board.cache_hierarchy.ruby_system.l1_controllers2.power_state
prefetchQueue=board.cache_hierarchy.ruby_system.l1_controllers2.prefetchQueue
prefetcher=board.cache_hierarchy.ruby_system.l1_controllers2.prefetcher
recycle_latency=10
request_latency=2
response_latency=2
ruby_system=board.cache_hierarchy.ruby_system
send_evictions=true
sequencer=board.cache_hierarchy.ruby_system.l1_controllers2.sequencer
system=board
transitions_per_cycle=32
upstream_destinations=
use_llsc_lock=true
version=2

[board.cache_hierarchy.ruby_system.l1_controllers2.Dcache]
type=RubyCache
children=replacement_policy
assoc=8
atomicALUs=64
atomicLatency=0
block_size=0
dataAccessLatency=1
dataArrayBanks=1
eventq_index=3
is_icache=false
replacement_policy=board.cache_hierarchy.ruby_system.l1_controllers2.Dcache.replacement_policy
resourceStalls=false
size=32768
start_index_bit=6
tagAccessLatency=1
tagArrayBanks=1

[board.cache_hierarchy.ruby_system.l1_controllers2.Dcache.replacement_policy]
type=LRURP
eventq_index=3

[board.cache_hierarchy.ruby_system.l1_controllers2.Icache]
type=RubyCache
children=replacement_policy
assoc=8
atomicALUs=64
atomicLatency=0
block_size=0
dataAccessLatency=1
dataArrayBanks=1
eventq_index=3
is_icache=true
replacement_policy=board.cache_hierarchy.ruby_system.l1_controllers2.Icache.replacement_policy
resourceStalls=false
size=32768
start_index_bit=6
tagAccessLatency=1
tagArrayBanks=1

[board.cache_hierarchy.ruby_system.l1_controllers2.Icache.replacement_policy]
type=LRURP
eventq_index=3

[board.cache_hierarchy.ruby_system.l1_controllers2.bufferFromL1]
type=MessageBuffer
allow_zero_latency=false
buffer_size=0
eventq_index=3
max_dequeue_rate=0
ordered=true
randomization=ruby_system
routing_priority=0

[board.cache_hierarchy.ruby_system.l1_controllers2.bufferToL1]
type=MessageBuffer
allow_zero_latency=false
buffer_size=0
eventq_index=3
max_dequeue_rate=0
ordered=true
randomization=ruby_system
routing_priority=0

[board.cache_hierarchy.ruby_system.l1_controllers2.mandatoryQueue]
type=MessageBuffer
allow_zero_latency=false
buffer_size=0
eventq_index=3
max_dequeue_rate=0
ordered=false
randomization=ruby_system
routing_priority=0

[board.cache_hierarchy.ruby_system.l1_controllers2.optionalQueue]
type=MessageBuffer
allow_zero_latency=false
buffer_size=0
eventq_index=3
max_dequeue_rate=0
ordered=false
randomization=ruby_system
routing_priority=0

[board.cache_hierarchy.ruby_system.l1_controllers2.power_state]
type=PowerState
clk_gate_bins=20
clk_gate_max=1000000000000
clk_gate_min=1000
default_state=UNDEFINED
eventq_index=3
leaders=
possible_states=

[board.cache_hierarchy.ruby_system.l1_controllers2.prefetchQueue]
type=MessageBuffer
allow_zero_latency=false
buffer_size=0
eventq_index=3
max_dequeue_rate=0
ordered=false
randomization=ruby_system
routing_priority=0

[board.cache_hierarchy.ruby_system.l1_controllers2.prefetcher]
type=RubyPrefetcher
block_size=64
cross_page=false
eventq_index=3
nonunit_filter=8
num_startup_pfs=1
num_streams=4
page_shift=12
train_misses=4
unit_filter=8

[board.cache_hierarchy.ruby_system.l1_controllers2.sequencer]
type=RubySequencer
children=power_state
clk_domain=board.clk_domain
coreid=99
dcache=board.cache_hierarchy.ruby_system.l1_controllers2.Dcache
deadlock_threshold=500000
eventq_index=3
garnet_standalone=false
is_cpu_sequencer=true
max_outstanding_requests=32
no_retry_on_stall=false
power_model=
power_state=board.cache_hierarchy.ruby_system.l1_controllers2.sequencer.power_state
ruby_system=board.cache_hierarchy.ruby_system
support_data_reqs=true
support_inst_reqs=true
system=board
using_ruby_tester=false
version=2
in_ports=board.processor.cores2.core.icache_port board.processor.cores2.core.dcache_port board.processor.cores2.core.mmu.itb.walker.port board.processor.cores2.core.mmu.dtb.walker.port board.processor.cores2.core.interrupts.int_requestor
interrupt_out_port=board.processor.cores2.core.interrupts.pio board.processor.cores2.core.interrupts.int_responder
mem_request_port=board.iobus.cpu_side_ports[6]
pio_request_port=board.iobus.cpu_side_ports[5]
pio_response_port=board.iobus.mem_side_ports[16]

[board.cache_hierarchy.ruby_system.l1_controllers2.sequencer.power_state]
type=PowerState
clk_gate_bins=20
clk_gate_max=1000000000000
clk_gate_min=1000
default_state=UNDEFINED
eventq_index=3
leaders=
possible_states=

[board.cache_hierarchy.ruby_system.l1_controllers3]
type=MESI_Three_Level_L0Cache_Controller
children=Dcache Icache bufferFromL1 bufferToL1 mandatoryQueue optionalQueue power_state prefetchQueue prefetcher sequencer
Dcache=board.cache_hierarchy.ruby_system.l1_controllers3.Dcache
Icache=board.cache_hierarchy.ruby_system.l1_controllers3.Icache
addr_ranges=0:18446744073709551615
bufferFromL1=board.cache_hierarchy.ruby_system.l1_controllers3.bufferFromL1
bufferToL1=board.cache_hierarchy.ruby_system.l1_controllers3.bufferToL1
buffer_size=0
clk_domain=board.clk_domain
cluster_id=0
downstream_destinations=
enable_prefetch=false
eventq_index=4
llsc_lock_timeout_latency=16
mandatoryQueue=board.cache_hierarchy.ruby_system.l1_controllers3.mandatoryQueue
mandatory_queue_latency=1
number_of_TBEs=256
power_model=
power_state=board.cache_hierarchy.ruby_system.l1_controllers3.power_state
prefetchQueue=board.cache_hierarchy.ruby_system.l1_controllers3.prefetchQueue
prefetcher=board.cache_hierarchy.ruby_system.l1_controllers3.prefetcher
recycle_latency=10
request_latency=2
response_latency=2
ruby_system=board.cache_hierarchy.ruby_system
send_evictions=true
sequencer=board.cache_hierarchy.ruby_system.l1_controllers3.sequencer
system=board
transitions_per_cycle=32
upstream_destinations=
use_llsc_lock=true
version=3

[board.cache_hierarchy.ruby_system.l1_controllers3.Dcache]
type=RubyCache
children=replacement_policy
assoc=8
atomicALUs=64
atomicLatency=0
block_size=0
dataAccessLatency=1
dataArrayBanks=1
eventq_index=4
is_icache=false
replacement_policy=board.cache_hierarchy.ruby_system.l1_controllers3.Dcache.replacement_policy
resourceStalls=false
size=32768
start_index_bit=6
tagAccessLatency=1
tagArrayBanks=1

[board.cache_hierarchy.ruby_system.l1_controllers3.Dcache.replacement_policy]
type=LRURP
eventq_index=4
